LTspice 24.1.9 for Windows
Circuit: D:\VLSI\Full Adder\Draft1.net
Start Time: Thu Sep 11 10:31:14 2025
solver = Normal
Maximum thread count: 12
tnom = 27
temp = 27
method = trap
D:\VLSI\Full Adder\Draft1.net(5): Limiting rise time to 0.0001.

V1 in 0 PULSE(0 3.3 0 0 0 1m 2m 10)
^^^^^^^^^^^^^^^^^^^^^^^^^^^^^^^^^^^
D:\VLSI\Full Adder\Draft1.net(5): Limiting fall time to 0.0001.

V1 in 0 PULSE(0 3.3 0 0 0 1m 2m 10)
^^^^^^^^^^^^^^^^^^^^^^^^^^^^^^^^^^^
D:\VLSI\Full Adder\Draft1.net(8): Limiting rise time to 0.0004.

V2 Clk 0 PULSE(0 3.3 0 0 0 4m 8m 10)
^^^^^^^^^^^^^^^^^^^^^^^^^^^^^^^^^^^^
D:\VLSI\Full Adder\Draft1.net(8): Limiting fall time to 0.0004.

V2 Clk 0 PULSE(0 3.3 0 0 0 4m 8m 10)
^^^^^^^^^^^^^^^^^^^^^^^^^^^^^^^^^^^^
Direct Newton iteration for .op point succeeded.
Total elapsed time: 0.216 seconds.

Files loaded:
D:\VLSI\Full Adder\Draft1.net
C:\Users\user\AppData\Local\LTspice\lib\cmp\standard.mos

