LTspice 24.1.9 for Windows
Circuit: D:\VLSI\Transmission Gate\Draft1.net
Start Time: Thu Oct  9 11:15:50 2025
solver = Normal
Maximum thread count: 12
tnom = 27
temp = 27
method = trap
Direct Newton iteration for .op point succeeded.
Total elapsed time: 0.188 seconds.

Files loaded:
D:\VLSI\Transmission Gate\Draft1.net
C:\Users\user\AppData\Local\LTspice\lib\cmp\standard.mos

