LTspice 24.1.9 for Windows
Circuit: D:\VLSI\Transmission Gate\TransmissionGate.net
Start Time: Thu Oct  9 13:20:53 2025
solver = Normal
Maximum thread count: 12
tnom = 27
temp = 27
method = trap
D:\VLSI\Transmission Gate\TransmissionGate.net(6): Limiting rise time to 4e-07.

V2 N003 0 PULSE(0 5 0 0 0 4u 8u 10)
^^^^^^^^^^^^^^^^^^^^^^^^^^^^^^^^^^^
D:\VLSI\Transmission Gate\TransmissionGate.net(6): Limiting fall time to 4e-07.

V2 N003 0 PULSE(0 5 0 0 0 4u 8u 10)
^^^^^^^^^^^^^^^^^^^^^^^^^^^^^^^^^^^
Direct Newton iteration for .op point succeeded.
Total elapsed time: 0.398 seconds.

Files loaded:
D:\VLSI\Transmission Gate\TransmissionGate.net
C:\Users\user\AppData\Local\LTspice\lib\cmp\standard.mos

