LTspice 24.1.9 for Windows
Circuit: D:\VLSI\XOR Gate TG\xor gate tg.net
Start Time: Thu Oct  9 13:26:33 2025
solver = Normal
Maximum thread count: 12
tnom = 27
temp = 27
method = trap
.OP point found by inspection.
Total elapsed time: 0.195 seconds.

Files loaded:
D:\VLSI\XOR Gate TG\xor gate tg.net
C:\Users\user\AppData\Local\LTspice\lib\cmp\standard.mos

