LTspice 24.1.9 for Windows
Circuit: D:\VLSI\Inverter\Inverter.net
Start Time: Wed Sep 10 18:23:47 2025
solver = Normal
Maximum thread count: 12
tnom = 27
temp = 27
method = trap
Direct Newton iteration for .op point succeeded.
Total elapsed time: 0.201 seconds.

Files loaded:
D:\VLSI\Inverter\Inverter.net
C:\Users\user\AppData\Local\LTspice\lib\cmp\standard.mos

