LTspice 24.1.9 for Windows
Circuit: D:\VLSI\Amplifier\CS Amplifier.net
Start Time: Wed Sep  3 13:29:02 2025
solver = Normal
Maximum thread count: 12
tnom = 27
temp = 27
method = trap
Direct Newton iteration for .op point succeeded.
Total elapsed time: 0.431 seconds.

Files loaded:
D:\VLSI\Amplifier\CS Amplifier.net
C:\Users\user\AppData\Local\LTspice\lib\cmp\standard.mos

