LTspice 24.1.9 for Windows
Circuit: D:\VLSI\Amplifier\Draft1.net
Start Time: Thu Sep  4 02:27:34 2025
solver = Normal
Maximum thread count: 12
tnom = 27
temp = 27
method = trap
Direct Newton iteration for .op point succeeded.
Total elapsed time: 0.225 seconds.

Files loaded:
D:\VLSI\Amplifier\Draft1.net
C:\Users\user\AppData\Local\LTspice\lib\cmp\standard.mos

